---- qbsp / ericw-tools v0.18.1-32-g6660c5f ----
Input file: dank.map
Output file: dank.bsp

---- LoadMapFile ----
*** WARNING 06: No info_player_deathmatch entities in level
         5796 faces
         1158 brushes
            4 entities
            6 unique texnames
           18 texinfo

Opened WAD: C:/Program Files (x86)/GOG Galaxy/Games/DUSK/SDK/mnt/local/dank/wads/dusk.wad
Opened WAD: C:/Program Files (x86)/GOG Galaxy/Games/DUSK/SDK/mnt/local/dank/wads/dusk_transparent.wad
Processing hull 0...
---- Brush_LoadEntity ----
         1158 brushes
          800 planes
---- CSGFaces ----
         5796 brushfaces
         2501 csgfaces
          986 mergedfaces
---- SolidBSP ----
         2514 split nodes
         1220 solid leafs
         1277 empty leafs
           18 water leafs
            0 detail leafs
            0 detail illusionary leafs
            0 detail fence leafs
            0 illusionary visblocker leafs
         8529 leaffaces
         7692 nodefaces
---- Portalize ----
         1295 vis leafs
         1295 vis clusters
         4024 vis portals
---- FillOutside ----
           43 outleafs
---- MergeAll ----
          938 mergefaces
---- SolidBSP ----
         2436 split nodes
         1221 solid leafs
         1198 empty leafs
           18 water leafs
            0 detail leafs
            0 detail illusionary leafs
            0 detail fence leafs
            0 illusionary visblocker leafs
         7291 leaffaces
         6406 nodefaces
---- Portalize ----
         1216 vis leafs
         1216 vis clusters
         3870 vis portals
---- Tjunc ----
         5334 world edges
        19473 edge points
         3815 edges added by tjunctions
            0 faces added by tjunctions
---- MakeFaceEdges ----
---- GrowRegions ----
Processing hull 1...
Processing hull 2...
---- WriteBSPFile ----
Wrote dank.bsp
         2188 planes            43760
         7387 vertexes          88644
         2436 nodes             58464
           16 texinfo             640
         6406 faces            128120
         8078 clipnodes         64624
         1217 leafs             34076
         7291 marksurfaces      14582
        28215 surfedges        112860
        14110 edges             56440
            6 textures        1746508
              lightdata             0
              visdata               0
              entdata             712

6.955 seconds elapsed
Peak memory usage: 42130938 (40.2M)
