---- qbsp / ericw-tools v0.18.1-32-g6660c5f ----
Input file: dank.map
Output file: dank.bsp

---- LoadMapFile ----
*** WARNING 06: No info_player_deathmatch entities in level
           36 faces
            6 brushes
           14 entities
            6 unique texnames
           30 texinfo

Opened WAD: C:/Program Files (x86)/GOG Galaxy/Games/DUSK/SDK/mnt/local/dank/wads/dusk.wad
Processing hull 0...
---- Brush_LoadEntity ----
            6 brushes
           12 planes
---- CSGFaces ----
           36 brushfaces
           34 csgfaces
           62 mergedfaces
---- SolidBSP ----
           36 split nodes
            1 solid leafs
           28 empty leafs
            8 water leafs
            0 detail leafs
            0 detail illusionary leafs
            0 detail fence leafs
            0 illusionary visblocker leafs
          122 leaffaces
          122 nodefaces
---- Portalize ----
           36 vis leafs
           36 vis clusters
           69 vis portals
---- FillOutside ----
           27 outleafs
---- MergeAll ----
           38 mergefaces
---- SolidBSP ----
           21 split nodes
           16 solid leafs
            1 empty leafs
            5 water leafs
            0 detail leafs
            0 detail illusionary leafs
            0 detail fence leafs
            0 illusionary visblocker leafs
           65 leaffaces
           65 nodefaces
---- Portalize ----
            6 vis leafs
            6 vis clusters
            6 vis portals
---- Tjunc ----
           56 world edges
          192 edge points
           72 edges added by tjunctions
            0 faces added by tjunctions
---- MakeFaceEdges ----
---- GrowRegions ----
Processing hull 1...
Processing hull 2...
---- WriteBSPFile ----
Wrote dank.bsp
           23 planes              460
           75 vertexes            900
           21 nodes               504
           24 texinfo             960
           65 faces              1300
           12 clipnodes            96
            7 leafs               196
           65 marksurfaces        130
          332 surfedges          1328
          167 edges               668
            6 textures        1762189
              lightdata             0
              visdata               0
              entdata             955

0.815 seconds elapsed
Peak memory usage: 1927997 (1.8M)
