---- qbsp / ericw-tools v0.18.1-32-g6660c5f ----
Input file: dank.map
Output file: dank.bsp

---- LoadMapFile ----
*** WARNING 06: No info_player_deathmatch entities in level
         5820 faces
         1159 brushes
            9 entities
            9 unique texnames
           27 texinfo

Opened WAD: C:/Program Files (x86)/GOG Galaxy/Games/DUSK/SDK/mnt/local/dank/wads/dusk_transparent.wad
Opened WAD: C:/Program Files (x86)/GOG Galaxy/Games/DUSK/SDK/mnt/local/dank/wads/id1.wad
Opened WAD: C:/Program Files (x86)/GOG Galaxy/Games/DUSK/SDK/mnt/local/dank/wads/dusk.wad
Opened WAD: C:/quakedev/wads/biome-pritchard.wad
Processing hull 0...
---- Brush_LoadEntity ----
         1159 brushes
          814 planes
---- CSGFaces ----
         5820 brushfaces
         2754 csgfaces
         1164 mergedfaces
---- SolidBSP ----
         2583 split nodes
         1231 solid leafs
         1269 empty leafs
           84 water leafs
            0 detail leafs
            0 detail illusionary leafs
            0 detail fence leafs
            0 illusionary visblocker leafs
         8870 leaffaces
         7982 nodefaces
---- Portalize ----
         1353 vis leafs
         1353 vis clusters
         4250 vis portals
---- FillOutside ----
           43 outleafs
---- MergeAll ----
         1097 mergefaces
---- SolidBSP ----
         2505 split nodes
         1232 solid leafs
         1190 empty leafs
           84 water leafs
            0 detail leafs
            0 detail illusionary leafs
            0 detail fence leafs
            0 illusionary visblocker leafs
         7488 leaffaces
         6554 nodefaces
---- Portalize ----
         1274 vis leafs
         1274 vis clusters
         4104 vis portals
---- Tjunc ----
         5455 world edges
        19779 edge points
         3988 edges added by tjunctions
            0 faces added by tjunctions
---- MakeFaceEdges ----
---- GrowRegions ----
Processing hull 1...
Processing hull 2...
---- WriteBSPFile ----
Wrote dank.bsp
         2202 planes            44040
         7490 vertexes          89880
         2505 nodes             60120
           24 texinfo             960
         6554 faces            131080
         8069 clipnodes         64552
         1275 leafs             35700
         7488 marksurfaces      14976
        28967 surfedges        115868
        14486 edges             57944
            9 textures        1873617
              lightdata             0
              visdata               0
              entdata            1113

5.940 seconds elapsed
Peak memory usage: 42550072 (40.6M)
