---- qbsp / ericw-tools v0.18.1-32-g6660c5f ----
Input file: dank.map
Output file: dank.bsp

---- LoadMapFile ----
*** WARNING 06: No info_player_deathmatch entities in level
         5820 faces
         1159 brushes
           24 entities
            9 unique texnames
           30 texinfo

Opened WAD: C:/Program Files (x86)/GOG Galaxy/Games/DUSK/SDK/mnt/local/dank/wads/dusk_transparent.wad
Opened WAD: C:/Program Files (x86)/GOG Galaxy/Games/DUSK/SDK/mnt/local/dank/wads/id1.wad
Opened WAD: C:/Program Files (x86)/GOG Galaxy/Games/DUSK/SDK/mnt/local/dank/wads/dusk.wad
Opened WAD: C:/quakedev/wads/biome-pritchard.wad
Processing hull 0...
---- Brush_LoadEntity ----
         1159 brushes
          814 planes
---- CSGFaces ----
         5820 brushfaces
         2754 csgfaces
         1213 mergedfaces
---- SolidBSP ----
         2588 split nodes
         1233 solid leafs
         1272 empty leafs
           84 water leafs
            0 detail leafs
            0 detail illusionary leafs
            0 detail fence leafs
            0 illusionary visblocker leafs
         8994 leaffaces
         8130 nodefaces
---- Portalize ----
         1356 vis leafs
         1356 vis clusters
         4302 vis portals
---- FillOutside ----
           43 outleafs
---- MergeAll ----
         1105 mergefaces
---- SolidBSP ----
         2511 split nodes
         1235 solid leafs
         1193 empty leafs
           84 water leafs
            0 detail leafs
            0 detail illusionary leafs
            0 detail fence leafs
            0 illusionary visblocker leafs
         7479 leaffaces
         6589 nodefaces
---- Portalize ----
         1277 vis leafs
         1277 vis clusters
         4146 vis portals
---- Tjunc ----
         5472 world edges
        19881 edge points
         4008 edges added by tjunctions
            0 faces added by tjunctions
---- MakeFaceEdges ----
---- GrowRegions ----
Processing hull 1...
Processing hull 2...
---- WriteBSPFile ----
Wrote dank.bsp
         2202 planes            44040
         7536 vertexes          90432
         2511 nodes             60264
           27 texinfo            1080
         6589 faces            131780
         8065 clipnodes         64520
         1278 leafs             35784
         7479 marksurfaces      14958
        29125 surfedges        116500
        14565 edges             58260
            9 textures        1873617
              lightdata             0
              visdata               0
              entdata            2011

8.849 seconds elapsed
Peak memory usage: 42601090 (40.6M)
